/*--------------------------------*- C++ -*----------------------------------*\
| =========                 |                                                 |
| \\      /  F ield         | OpenFOAM: The Open Source CFD Toolbox           |
|  \\    /   O peration     | Version:  v3.0+                                 |
|   \\  /    A nd           | Web:      www.OpenFOAM.com                      |
|    \\/     M anipulation  |                                                 |
\*---------------------------------------------------------------------------*/
FoamFile
{
    version     2.0;
    format      ascii;
    class       dictionary;
    object      blockMeshDict;
}
// * * * * * * * * * * * * * * * * * * * * * * * * * * * * * * * * * * * * * //

convertToMeters 1;

vertices
(
    (0 0 0)
    (40 0 0)
    (40 10 0)
    (0 10 0)

    (0 0 1)
    (40 0 1)
    (40 10 1)
    (0 10 1)

);

blocks
(
     hex (0 1 2 3 4 5 6 7) (80 20 1) simpleGrading (1 1 1)
);

edges
(
);

boundary
(
    upperWall
    {
        type wall;
        faces
        (
            (3 7 6 2)
        );
    }
    lowerWall
    {
        type wall;
        faces
        (
            (0 1 5 4)
        );
    }
    inlet
    {
        type patch;
        faces
        (
            (3 0 4 7)
        );
    }
    outlet
    {
        type patch;
        faces
        (
            (1 2 6 5)
        );
    }
    frontAndBack
    {
        type empty;
        faces
        (
            (0 3 2 1)
            (7 6 5 4)
        );
    }
);

mergePatchPairs
(
);

// ************************************************************************* //
